Version 4
SHEET 1 1592 680
WIRE 320 -16 256 -16
WIRE 448 -16 384 -16
WIRE 1024 16 1024 0
WIRE 1184 48 1184 16
WIRE 1184 48 1056 48
WIRE 1216 48 1184 48
WIRE 1536 48 1504 48
WIRE 1536 64 1536 48
WIRE -32 96 -96 96
WIRE 1024 96 1024 80
WIRE 96 112 32 112
WIRE 128 112 96 112
WIRE 256 112 256 -16
WIRE 256 112 208 112
WIRE 304 112 256 112
WIRE -32 128 -96 128
WIRE 448 128 448 -16
WIRE 448 128 368 128
WIRE 528 128 448 128
WIRE -528 144 -528 112
WIRE -416 144 -416 112
WIRE 304 144 256 144
WIRE 0 160 0 144
WIRE 336 176 336 160
WIRE 1024 192 1024 176
WIRE 1184 224 1184 192
WIRE 1184 224 1056 224
WIRE 1216 224 1184 224
WIRE 1536 224 1504 224
WIRE 1536 240 1536 224
WIRE -96 256 -96 128
WIRE -48 256 -96 256
WIRE 96 256 96 112
WIRE 96 256 32 256
WIRE -528 272 -528 224
WIRE -416 272 -416 224
WIRE 1024 272 1024 256
WIRE -96 320 -96 256
WIRE 144 320 -96 320
WIRE 448 320 448 128
WIRE 448 320 224 320
WIRE -528 448 -528 400
WIRE -528 560 -528 528
FLAG -528 112 V+
FLAG -528 272 0
FLAG 0 80 V+
FLAG 336 96 V+
FLAG 0 160 0
FLAG 336 176 0
FLAG -416 112 Vref
FLAG -416 272 0
FLAG -96 96 Vref
FLAG 256 144 Vref
FLAG 528 128 Triangle
FLAG 1024 96 0
FLAG 1024 272 0
FLAG 1024 0 V+
FLAG 1024 176 V+
FLAG -528 560 0
FLAG -528 400 audio
FLAG 992 32 audio
FLAG 992 240 audio
FLAG 992 64 Triangle
FLAG 992 208 Triangle
FLAG 1536 128 Vref
FLAG 1536 304 Vref
FLAG 1184 -64 V+
FLAG 1184 112 V+
SYMBOL res 224 96 R90
WINDOW 0 0 56 VBottom 2
WINDOW 3 32 56 VTop 2
SYMATTR InstName R1
SYMATTR Value 155
SYMBOL res 48 240 R90
WINDOW 0 0 56 VBottom 2
WINDOW 3 32 56 VTop 2
SYMATTR InstName R2
SYMATTR Value 10k
SYMBOL res 240 304 R90
WINDOW 0 0 56 VBottom 2
WINDOW 3 32 56 VTop 2
SYMATTR InstName R3
SYMATTR Value 9.8k
SYMBOL cap 384 -32 R90
WINDOW 0 0 32 VBottom 2
WINDOW 3 32 32 VTop 2
SYMATTR InstName C1
SYMATTR Value 0.015µ
SYMBOL voltage -528 128 R0
SYMATTR InstName V1
SYMATTR Value 5
SYMBOL voltage -416 128 R0
SYMATTR InstName V2
SYMATTR Value 2.5
SYMBOL voltage -528 432 R0
WINDOW 123 0 0 Left 0
WINDOW 39 0 0 Left 0
SYMATTR InstName V3
SYMATTR Value SINE(2.5 2 500 0)
SYMBOL cap 1520 64 R0
SYMATTR InstName C2
SYMATTR Value 75n
SYMBOL res 1520 32 R90
WINDOW 0 0 56 VBottom 2
WINDOW 3 32 56 VTop 2
SYMATTR InstName R6
SYMATTR Value 10k
SYMBOL cap 1520 240 R0
SYMATTR InstName C3
SYMATTR Value 75n
SYMBOL res 1520 208 R90
WINDOW 0 0 56 VBottom 2
WINDOW 3 32 56 VTop 2
SYMATTR InstName R5
SYMATTR Value 10k
SYMBOL OpAmps\\opamp2 0 48 R0
SYMATTR InstName U1
SYMATTR Value TL972
SYMBOL OpAmps\\opamp2 336 64 R0
SYMATTR InstName U2
SYMATTR Value TL972
SYMBOL res 1168 -80 R0
SYMATTR InstName R4
SYMATTR Value 10k
SYMBOL res 1168 96 R0
SYMATTR InstName R7
SYMATTR Value 10k
SYMBOL OpAmps\\opamp2 1024 -16 R0
SYMATTR InstName U3
SYMATTR Value LMV393
SYMBOL OpAmps\\opamp2 1024 160 R0
SYMATTR InstName U4
SYMATTR Value LMV393
TEXT -136 -88 Left 2 !.tran 0 0.0050 0.0020 0.01 startup
TEXT -136 -112 Left 2 !.include lib/LMH6658.lib
TEXT -136 -136 Left 2 !.include lib/TL972.lib
TEXT 896 -176 Left 2 !.include lib/LMV393.MOD
