Version 4
SHEET 1 880 680
WIRE 320 -16 256 -16
WIRE 448 -16 384 -16
WIRE -320 48 -320 16
WIRE -32 96 -144 96
WIRE 96 112 32 112
WIRE 128 112 96 112
WIRE 256 112 256 -16
WIRE 256 112 208 112
WIRE 304 112 256 112
WIRE -144 128 -144 96
WIRE -32 128 -96 128
WIRE 448 128 448 -16
WIRE 448 128 368 128
WIRE 528 128 448 128
WIRE 304 144 256 144
WIRE -320 160 -320 128
WIRE -320 160 -368 160
WIRE -368 176 -368 160
WIRE 256 176 256 144
WIRE -320 192 -320 160
WIRE -96 256 -96 128
WIRE -48 256 -96 256
WIRE 96 256 96 112
WIRE 96 256 32 256
WIRE -320 304 -320 272
WIRE -96 320 -96 256
WIRE 144 320 -96 320
WIRE 448 320 448 128
WIRE 448 320 224 320
FLAG -144 128 0
FLAG 256 176 0
FLAG -320 16 V+
FLAG -320 304 V-
FLAG -368 176 0
FLAG 0 80 V+
FLAG 336 96 V+
FLAG 0 144 V-
FLAG 336 160 V-
SYMBOL res 224 96 R90
WINDOW 0 0 56 VBottom 2
WINDOW 3 32 56 VTop 2
SYMATTR InstName R1
SYMATTR Value 1k
SYMBOL res 48 240 R90
WINDOW 0 0 56 VBottom 2
WINDOW 3 32 56 VTop 2
SYMATTR InstName R2
SYMATTR Value 10k
SYMBOL res 240 304 R90
WINDOW 0 0 56 VBottom 2
WINDOW 3 32 56 VTop 2
SYMATTR InstName R3
SYMATTR Value 6.8k
SYMBOL cap 384 -32 R90
WINDOW 0 0 32 VBottom 2
WINDOW 3 32 32 VTop 2
SYMATTR InstName C1
SYMATTR Value 0.015µ
SYMBOL voltage -320 32 R0
SYMATTR InstName V1
SYMATTR Value 15
SYMBOL voltage -320 176 R0
SYMATTR InstName V2
SYMATTR Value 15
SYMBOL OpAmps\\LTC6244 0 112 R0
SYMATTR InstName U1
SYMBOL OpAmps\\LTC6244 336 128 R0
SYMATTR InstName U2
TEXT -136 -56 Left 2 !.tran 0 0.0015 0.00100 0.01 startup
