Version 4
SHEET 1 2112 868
WIRE 160 -240 -416 -240
WIRE 416 -240 160 -240
WIRE 800 -240 416 -240
WIRE 976 -240 800 -240
WIRE 1408 -240 976 -240
WIRE 368 -208 -272 -208
WIRE 752 -208 368 -208
WIRE 1088 -208 752 -208
WIRE 1344 -208 1088 -208
WIRE 368 -160 368 -208
WIRE 160 -144 160 -240
WIRE 752 -144 752 -208
WIRE 1344 -128 1344 -208
WIRE 1088 -80 1088 -208
WIRE 368 -64 368 -96
WIRE 368 -64 352 -64
WIRE -416 -48 -416 -240
WIRE -272 -48 -272 -208
WIRE 416 -48 416 -240
WIRE 752 -48 752 -80
WIRE 752 -48 736 -48
WIRE 64 -32 32 -32
WIRE 160 -32 160 -64
WIRE 160 -32 128 -32
WIRE 256 -32 240 -32
WIRE 272 -32 256 -32
WIRE 352 -32 352 -64
WIRE 384 -32 368 -32
WIRE 800 -32 800 -240
WIRE 1344 -32 1344 -48
WIRE 1344 -32 1328 -32
WIRE 512 -16 448 -16
WIRE 544 -16 512 -16
WIRE 640 -16 624 -16
WIRE 656 -16 640 -16
WIRE 736 -16 736 -48
WIRE 768 -16 752 -16
WIRE 976 -16 976 -240
WIRE 32 0 32 -32
WIRE 160 0 160 -32
WIRE 352 0 352 -32
WIRE 384 0 352 0
WIRE 896 0 832 0
WIRE 944 0 928 0
WIRE 1408 0 1408 -240
WIRE 736 16 736 -16
WIRE 768 16 736 16
WIRE 1088 16 1088 0
WIRE 1088 16 1008 16
WIRE 1152 16 1088 16
WIRE 1232 16 1216 16
WIRE 1248 16 1232 16
WIRE 1328 16 1328 -32
WIRE 1328 16 1312 16
WIRE 1376 16 1344 16
WIRE 896 32 896 0
WIRE 944 32 896 32
WIRE 1088 32 1088 16
WIRE 1520 32 1440 32
WIRE 1328 48 1328 16
WIRE 1376 48 1328 48
WIRE 256 80 256 -32
WIRE 368 80 368 -32
WIRE 368 80 320 80
WIRE 512 80 512 -16
WIRE 512 80 368 80
WIRE 640 80 640 -16
WIRE 752 80 752 -16
WIRE 752 80 704 80
WIRE 896 80 896 32
WIRE 896 80 752 80
WIRE 928 112 928 0
WIRE 1088 112 928 112
WIRE 1232 112 1232 16
WIRE 1344 112 1344 16
WIRE 1344 112 1312 112
WIRE 1520 112 1520 32
WIRE 1520 112 1344 112
WIRE -416 160 -416 32
WIRE -272 160 -272 32
WIRE -272 160 -416 160
WIRE 32 160 32 80
WIRE 32 160 -272 160
WIRE 160 160 160 80
WIRE 160 160 32 160
WIRE 416 160 416 16
WIRE 416 160 160 160
WIRE 800 160 800 32
WIRE 800 160 416 160
WIRE 976 160 976 48
WIRE 976 160 800 160
WIRE 1408 160 1408 64
WIRE 1408 160 976 160
WIRE -272 208 -272 160
FLAG -272 208 0
SYMBOL voltage 32 -16 M0
WINDOW 123 0 0 Left 0
WINDOW 39 0 0 Left 0
SYMATTR InstName V4
SYMATTR Value ac
SYMBOL cap 128 -48 R90
WINDOW 0 0 32 VBottom 2
WINDOW 3 32 32 VTop 2
SYMATTR InstName C1
SYMATTR Value 100µ
SYMBOL cap 320 64 R90
WINDOW 0 0 32 VBottom 2
WINDOW 3 32 32 VTop 2
SYMATTR InstName C2
SYMATTR Value 100n
SYMBOL cap 384 -160 M0
SYMATTR InstName C3
SYMATTR Value 100n
SYMBOL cap 768 -144 M0
SYMATTR InstName C4
SYMATTR Value 100n
SYMBOL cap 704 64 R90
WINDOW 0 0 32 VBottom 2
WINDOW 3 32 32 VTop 2
SYMATTR InstName C5
SYMATTR Value 100n
SYMBOL cap 1216 0 R90
WINDOW 0 0 32 VBottom 2
WINDOW 3 32 32 VTop 2
SYMATTR InstName C6
SYMATTR Value 100n
SYMBOL cap 1312 0 R90
WINDOW 0 0 32 VBottom 2
WINDOW 3 32 32 VTop 2
SYMATTR InstName C7
SYMATTR Value 100n
SYMBOL res 144 -160 R0
SYMATTR InstName R1
SYMATTR Value 100k
SYMBOL res 144 -16 R0
SYMATTR InstName R2
SYMATTR Value 100k
SYMBOL res 256 -48 R90
WINDOW 0 0 56 VBottom 2
WINDOW 3 32 56 VTop 2
SYMATTR InstName R3
SYMATTR Value 5k6
SYMBOL res 368 -48 R90
WINDOW 0 0 56 VBottom 2
WINDOW 3 32 56 VTop 2
SYMATTR InstName R4
SYMATTR Value 8k2
SYMBOL res 752 -32 R90
WINDOW 0 0 56 VBottom 2
WINDOW 3 32 56 VTop 2
SYMATTR InstName R5
SYMATTR Value 8k2
SYMBOL res 640 -32 R90
WINDOW 0 0 56 VBottom 2
WINDOW 3 32 56 VTop 2
SYMATTR InstName R6
SYMATTR Value 5k6
SYMBOL res 1328 96 R90
WINDOW 0 0 56 VBottom 2
WINDOW 3 32 56 VTop 2
SYMATTR InstName R7
SYMATTR Value 8k2
SYMBOL res 1360 -144 M0
SYMATTR InstName R8
SYMATTR Value 8k2
SYMBOL res 1072 -96 R0
SYMATTR InstName R9
SYMATTR Value 39k
SYMBOL res 1072 16 R0
SYMATTR InstName R10
SYMATTR Value 10k
SYMBOL OpAmps\\opamp2 416 -80 R0
SYMATTR InstName U1
SYMATTR Value LM324
SYMBOL OpAmps\\opamp2 800 -64 R0
SYMATTR InstName U2
SYMATTR Value LM324
SYMBOL OpAmps\\opamp2 976 -48 R0
SYMATTR InstName U3
SYMATTR Value LM324
SYMBOL voltage -416 -64 R0
WINDOW 123 0 0 Left 0
WINDOW 39 0 0 Left 0
SYMATTR InstName V1
SYMATTR Value 5
SYMBOL OpAmps\\opamp2 1408 -32 R0
SYMATTR InstName U4
SYMATTR Value LM324
SYMBOL voltage -272 -64 R0
WINDOW 123 0 0 Left 0
WINDOW 39 0 0 Left 0
SYMATTR InstName V2
SYMATTR Value 2.5
TEXT -128 -168 Left 2 !.ac dec 10s 1 1000
TEXT -128 -136 Left 2 !.include LM324.MOD
