Version 4
SHEET 1 2112 868
WIRE 208 -48 -272 -48
WIRE 624 -48 208 -48
WIRE 976 -48 624 -48
WIRE 1328 -48 976 -48
WIRE -272 0 -272 -48
WIRE 928 16 848 16
WIRE 1040 16 928 16
WIRE 848 32 848 16
WIRE 1040 32 1040 16
WIRE 1168 32 1152 32
WIRE 1376 32 1248 32
WIRE 464 64 432 64
WIRE 720 64 528 64
WIRE 48 80 16 80
WIRE 304 80 112 80
WIRE 1376 96 1376 32
WIRE 1376 96 1280 96
WIRE 1328 112 1328 -48
WIRE 672 128 576 128
WIRE 976 128 976 -48
WIRE 1280 128 1280 96
WIRE 1296 128 1280 128
WIRE 256 144 160 144
WIRE 624 144 624 -48
WIRE 928 144 928 16
WIRE 944 144 928 144
WIRE 1376 144 1376 96
WIRE 1376 144 1360 144
WIRE 208 160 208 -48
WIRE 576 160 576 128
WIRE 592 160 576 160
WIRE 1040 160 1040 112
WIRE 1040 160 1008 160
WIRE 1072 160 1040 160
WIRE 1152 160 1152 32
WIRE 1152 160 1136 160
WIRE 1168 160 1152 160
WIRE 1248 160 1232 160
WIRE 1296 160 1248 160
WIRE -272 176 -272 80
WIRE -192 176 -272 176
WIRE 160 176 160 144
WIRE 176 176 160 176
WIRE 672 176 672 128
WIRE 672 176 656 176
WIRE 720 176 720 64
WIRE 720 176 672 176
WIRE 944 176 720 176
WIRE 1248 176 1248 160
WIRE 256 192 256 144
WIRE 256 192 240 192
WIRE 304 192 304 80
WIRE 304 192 256 192
WIRE 320 192 304 192
WIRE 432 192 432 64
WIRE 432 192 400 192
WIRE 448 192 432 192
WIRE 560 192 528 192
WIRE 592 192 560 192
WIRE -192 208 -192 176
WIRE -96 208 -112 208
WIRE 16 208 16 80
WIRE 16 208 -16 208
WIRE 32 208 16 208
WIRE 144 208 112 208
WIRE 176 208 144 208
WIRE 560 240 560 192
WIRE 144 256 144 208
WIRE -112 272 -112 208
WIRE 1248 272 1248 256
WIRE -272 304 -272 176
WIRE 560 320 560 304
WIRE 144 336 144 320
WIRE -272 432 -272 384
WIRE 208 432 208 224
WIRE 208 432 -272 432
WIRE 624 432 624 208
WIRE 624 432 208 432
WIRE 976 432 976 192
WIRE 976 432 624 432
WIRE 1328 432 1328 176
WIRE 1328 432 976 432
FLAG 560 320 0
FLAG 144 336 0
FLAG -112 352 0
FLAG -192 208 0
FLAG 1248 272 0
FLAG 848 112 0
SYMBOL res 416 176 R90
WINDOW 0 0 56 VBottom 2
WINDOW 3 32 56 VTop 2
SYMATTR InstName R1
SYMATTR Value 2.2k
SYMBOL res 544 176 R90
WINDOW 0 0 56 VBottom 2
WINDOW 3 32 56 VTop 2
SYMATTR InstName R2
SYMATTR Value 3.6k
SYMBOL cap 544 240 R0
SYMATTR InstName C1
SYMATTR Value 100n
SYMBOL cap 528 48 R90
WINDOW 0 0 32 VBottom 2
WINDOW 3 32 32 VTop 2
SYMATTR InstName C2
SYMATTR Value 680n
SYMBOL voltage -272 -16 R0
WINDOW 123 0 0 Left 0
WINDOW 39 0 0 Left 0
SYMATTR InstName V2
SYMATTR Value 15v
SYMBOL voltage -272 288 R0
WINDOW 123 0 0 Left 0
WINDOW 39 0 0 Left 0
SYMATTR InstName V3
SYMATTR Value 15v
SYMBOL res 0 192 R90
WINDOW 0 0 56 VBottom 2
WINDOW 3 32 56 VTop 2
SYMATTR InstName R3
SYMATTR Value 5.6k
SYMBOL res 128 192 R90
WINDOW 0 0 56 VBottom 2
WINDOW 3 32 56 VTop 2
SYMATTR InstName R4
SYMATTR Value 8.2k
SYMBOL cap 128 256 R0
SYMATTR InstName C3
SYMATTR Value 100n
SYMBOL cap 112 64 R90
WINDOW 0 0 32 VBottom 2
WINDOW 3 32 32 VTop 2
SYMATTR InstName C4
SYMATTR Value 120n
SYMBOL voltage -112 256 R0
WINDOW 123 0 0 Left 0
WINDOW 39 0 0 Left 0
SYMATTR InstName V1
SYMATTR Value ac
SYMBOL res 1232 160 R0
SYMATTR InstName R5
SYMATTR Value 15k
SYMBOL cap 1232 144 R90
WINDOW 0 0 32 VBottom 2
WINDOW 3 32 32 VTop 2
SYMATTR InstName C5
SYMATTR Value 1.2µ
SYMBOL cap 1136 144 R90
WINDOW 0 0 32 VBottom 2
WINDOW 3 32 32 VTop 2
SYMATTR InstName C6
SYMATTR Value 2.2µ
SYMBOL res 1264 16 R90
WINDOW 0 0 56 VBottom 2
WINDOW 3 32 56 VTop 2
SYMATTR InstName R6
SYMATTR Value 6.8k
SYMBOL OpAmps\\opamp2 208 128 R0
SYMATTR InstName U1
SYMATTR Value LM324
SYMBOL OpAmps\\opamp2 624 112 R0
SYMATTR InstName U2
SYMATTR Value LM324
SYMBOL OpAmps\\opamp2 976 96 R0
SYMATTR InstName U3
SYMATTR Value LM324
SYMBOL OpAmps\\opamp2 1328 80 R0
SYMATTR InstName U4
SYMATTR Value LM324
SYMBOL res 1024 16 R0
SYMATTR InstName R7
SYMATTR Value 39k
SYMBOL res 832 16 R0
SYMATTR InstName R8
SYMATTR Value 10k
TEXT 1104 -120 Left 2 !.ac dec 100 1 10000
TEXT 1104 -88 Left 2 !.include LM324.MOD
