Version 4
SHEET 1 2112 868
WIRE 160 -240 -416 -240
WIRE 448 -240 160 -240
WIRE 832 -240 448 -240
WIRE 1008 -240 832 -240
WIRE 1440 -240 1008 -240
WIRE 400 -208 -272 -208
WIRE 784 -208 400 -208
WIRE 1120 -208 784 -208
WIRE 1376 -208 1120 -208
WIRE 400 -160 400 -208
WIRE 160 -144 160 -240
WIRE 784 -144 784 -208
WIRE 1376 -128 1376 -208
WIRE 1120 -80 1120 -208
WIRE -416 -48 -416 -240
WIRE -272 -48 -272 -208
WIRE 448 -48 448 -240
WIRE 64 -32 32 -32
WIRE 160 -32 160 -64
WIRE 160 -32 128 -32
WIRE 192 -32 160 -32
WIRE 288 -32 272 -32
WIRE 304 -32 288 -32
WIRE 400 -32 400 -96
WIRE 400 -32 384 -32
WIRE 416 -32 400 -32
WIRE 832 -32 832 -240
WIRE 544 -16 480 -16
WIRE 576 -16 544 -16
WIRE 672 -16 656 -16
WIRE 688 -16 672 -16
WIRE 784 -16 784 -80
WIRE 784 -16 768 -16
WIRE 800 -16 784 -16
WIRE 1008 -16 1008 -240
WIRE 32 0 32 -32
WIRE 160 0 160 -32
WIRE 416 0 400 0
WIRE 928 0 864 0
WIRE 976 0 928 0
WIRE 1440 0 1440 -240
WIRE 800 16 784 16
WIRE 1120 16 1120 0
WIRE 1120 16 1040 16
WIRE 1184 16 1120 16
WIRE 1264 16 1248 16
WIRE 1280 16 1264 16
WIRE 1376 16 1376 -48
WIRE 1376 16 1344 16
WIRE 1408 16 1376 16
WIRE 976 32 960 32
WIRE 1120 32 1120 16
WIRE 1552 32 1472 32
WIRE 1408 48 1376 48
WIRE 288 80 288 -32
WIRE 400 80 400 0
WIRE 400 80 352 80
WIRE 544 80 544 -16
WIRE 544 80 400 80
WIRE 672 80 672 -16
WIRE 784 80 784 16
WIRE 784 80 736 80
WIRE 928 80 928 0
WIRE 928 80 784 80
WIRE 960 112 960 32
WIRE 1120 112 960 112
WIRE 1264 112 1264 16
WIRE 1376 112 1376 48
WIRE 1376 112 1344 112
WIRE 1552 112 1552 32
WIRE 1552 112 1376 112
WIRE -416 160 -416 32
WIRE -272 160 -272 32
WIRE -272 160 -416 160
WIRE 32 160 32 80
WIRE 32 160 -272 160
WIRE 160 160 160 80
WIRE 160 160 32 160
WIRE 448 160 448 16
WIRE 448 160 160 160
WIRE 832 160 832 32
WIRE 832 160 448 160
WIRE 1008 160 1008 48
WIRE 1008 160 832 160
WIRE 1440 160 1440 64
WIRE 1440 160 1008 160
WIRE -272 208 -272 160
FLAG -272 208 0
SYMBOL voltage 32 -16 M0
WINDOW 123 0 0 Left 0
WINDOW 39 0 0 Left 0
SYMATTR InstName V4
SYMATTR Value SINE(0 0.5 100 0)
SYMBOL cap 128 -48 R90
WINDOW 0 0 32 VBottom 2
WINDOW 3 32 32 VTop 2
SYMATTR InstName C1
SYMATTR Value 100µ
SYMBOL cap 352 64 R90
WINDOW 0 0 32 VBottom 2
WINDOW 3 32 32 VTop 2
SYMATTR InstName C2
SYMATTR Value 100n
SYMBOL cap 416 -160 M0
SYMATTR InstName C3
SYMATTR Value 100n
SYMBOL cap 800 -144 M0
SYMATTR InstName C4
SYMATTR Value 100n
SYMBOL cap 736 64 R90
WINDOW 0 0 32 VBottom 2
WINDOW 3 32 32 VTop 2
SYMATTR InstName C5
SYMATTR Value 100n
SYMBOL cap 1248 0 R90
WINDOW 0 0 32 VBottom 2
WINDOW 3 32 32 VTop 2
SYMATTR InstName C6
SYMATTR Value 100n
SYMBOL cap 1344 0 R90
WINDOW 0 0 32 VBottom 2
WINDOW 3 32 32 VTop 2
SYMATTR InstName C7
SYMATTR Value 100n
SYMBOL res 144 -160 R0
SYMATTR InstName R1
SYMATTR Value 100k
SYMBOL res 144 -16 R0
SYMATTR InstName R2
SYMATTR Value 100k
SYMBOL res 288 -48 R90
WINDOW 0 0 56 VBottom 2
WINDOW 3 32 56 VTop 2
SYMATTR InstName R3
SYMATTR Value 5k6
SYMBOL res 400 -48 R90
WINDOW 0 0 56 VBottom 2
WINDOW 3 32 56 VTop 2
SYMATTR InstName R4
SYMATTR Value 8k2
SYMBOL res 784 -32 R90
WINDOW 0 0 56 VBottom 2
WINDOW 3 32 56 VTop 2
SYMATTR InstName R5
SYMATTR Value 8k2
SYMBOL res 672 -32 R90
WINDOW 0 0 56 VBottom 2
WINDOW 3 32 56 VTop 2
SYMATTR InstName R6
SYMATTR Value 5k6
SYMBOL res 1360 96 R90
WINDOW 0 0 56 VBottom 2
WINDOW 3 32 56 VTop 2
SYMATTR InstName R7
SYMATTR Value 8k2
SYMBOL res 1392 -144 M0
SYMATTR InstName R8
SYMATTR Value 8k2
SYMBOL res 1104 -96 R0
SYMATTR InstName R9
SYMATTR Value 39k
SYMBOL res 1104 16 R0
SYMATTR InstName R10
SYMATTR Value 10k
SYMBOL OpAmps\\opamp2 448 -80 R0
SYMATTR InstName U1
SYMATTR Value LM324
SYMBOL OpAmps\\opamp2 832 -64 R0
SYMATTR InstName U2
SYMATTR Value LM324
SYMBOL OpAmps\\opamp2 1008 -48 R0
SYMATTR InstName U3
SYMATTR Value LM324
SYMBOL voltage -416 -64 R0
WINDOW 123 0 0 Left 0
WINDOW 39 0 0 Left 0
SYMATTR InstName V1
SYMATTR Value 5
SYMBOL OpAmps\\opamp2 1440 -32 R0
SYMATTR InstName U4
SYMATTR Value LM324
SYMBOL voltage -272 -64 R0
WINDOW 123 0 0 Left 0
WINDOW 39 0 0 Left 0
SYMATTR InstName V2
SYMATTR Value 2.5
TEXT -128 -168 Left 2 !.tran 10s
TEXT -128 -136 Left 2 !.include LM324.MOD
