Version 4
SHEET 1 880 680
WIRE 240 -16 -272 -16
WIRE 656 -16 240 -16
WIRE -272 16 -272 -16
WIRE 496 64 464 64
WIRE 752 64 560 64
WIRE 80 80 48 80
WIRE 336 80 144 80
WIRE 704 128 608 128
WIRE 288 144 192 144
WIRE 656 144 656 -16
WIRE 240 160 240 -16
WIRE 608 160 608 128
WIRE 624 160 608 160
WIRE 192 176 192 144
WIRE 208 176 192 176
WIRE 704 176 704 128
WIRE 704 176 688 176
WIRE 752 176 752 64
WIRE 752 176 704 176
WIRE -272 192 -272 96
WIRE -192 192 -272 192
WIRE 288 192 288 144
WIRE 288 192 272 192
WIRE 336 192 336 80
WIRE 336 192 288 192
WIRE 352 192 336 192
WIRE 464 192 464 64
WIRE 464 192 432 192
WIRE 480 192 464 192
WIRE 592 192 560 192
WIRE 624 192 592 192
WIRE -64 208 -112 208
WIRE 48 208 48 80
WIRE 48 208 16 208
WIRE 64 208 48 208
WIRE 176 208 144 208
WIRE 208 208 176 208
WIRE -192 224 -192 192
WIRE 592 240 592 192
WIRE 176 256 176 208
WIRE -112 272 -112 208
WIRE -272 320 -272 192
WIRE 592 320 592 304
WIRE 176 336 176 320
WIRE -272 448 -272 400
WIRE 240 448 240 224
WIRE 240 448 -272 448
WIRE 656 448 656 208
WIRE 656 448 240 448
FLAG 592 320 0
FLAG 176 336 0
FLAG -112 352 0
FLAG -192 224 0
SYMBOL res 448 176 R90
WINDOW 0 0 56 VBottom 2
WINDOW 3 32 56 VTop 2
SYMATTR InstName R1
SYMATTR Value 2.2k
SYMBOL res 576 176 R90
WINDOW 0 0 56 VBottom 2
WINDOW 3 32 56 VTop 2
SYMATTR InstName R2
SYMATTR Value 3.6k
SYMBOL cap 576 240 R0
SYMATTR InstName C1
SYMATTR Value 100n
SYMBOL cap 560 48 R90
WINDOW 0 0 32 VBottom 2
WINDOW 3 32 32 VTop 2
SYMATTR InstName C2
SYMATTR Value 680n
SYMBOL voltage -272 0 R0
WINDOW 123 0 0 Left 0
WINDOW 39 0 0 Left 0
SYMATTR InstName V2
SYMATTR Value 15v
SYMBOL voltage -272 304 R0
WINDOW 123 0 0 Left 0
WINDOW 39 0 0 Left 0
SYMATTR InstName V3
SYMATTR Value 15v
SYMBOL res 32 192 R90
WINDOW 0 0 56 VBottom 2
WINDOW 3 32 56 VTop 2
SYMATTR InstName R3
SYMATTR Value 5.6k
SYMBOL res 160 192 R90
WINDOW 0 0 56 VBottom 2
WINDOW 3 32 56 VTop 2
SYMATTR InstName R4
SYMATTR Value 8.2k
SYMBOL cap 160 256 R0
SYMATTR InstName C3
SYMATTR Value 100n
SYMBOL cap 144 64 R90
WINDOW 0 0 32 VBottom 2
WINDOW 3 32 32 VTop 2
SYMATTR InstName C4
SYMATTR Value 120n
SYMBOL voltage -112 256 R0
WINDOW 123 0 0 Left 0
WINDOW 39 0 0 Left 0
SYMATTR InstName V1
SYMATTR Value ac
SYMBOL OpAmps\\OP07 240 128 R0
SYMATTR InstName U1
SYMBOL OpAmps\\OP07 656 112 R0
SYMATTR InstName U2
TEXT 424 424 Left 2 !.ac dec 100 1 10000
